Pcp_File_Version=4
*** BLOCK A: BASIC INFORMATION *****************************************
Heading
Flextreat Hydraulic Model
LUnit  TUnit  MUnit  (indicated units are obligatory for all input data)
cm
days
mmol
lWat   lChem lTemp  lSink lRoot lShort lWDep lScreen lVariabBC lEquil lInverse
 t     t     f      f     f     f      f     t       t         t         f
lSnow  lHP1   lMeteo  lVapor lActiveU lFluxes lIrrig  lDummy  lDummy  lDummy
 f       f       f       f       f       t       f       f       f       f
NMat    NLay  CosAlpha
  2       2       1
*** BLOCK B: WATER FLOW INFORMATION ************************************
MaxIt   TolTh   TolH       (maximum number of iterations and tolerances)
  10    0.001      1
TopInf WLayer KodTop InitCond
 t     t      -1       t
BotInf qGWLF FreeD SeepF KodBot DrainF  hSeep
 f     f     t     f     -1      f      0
    hTab1   hTabN
    1e-006   10000
    Model   Hysteresis
      0          0
   thr     ths    Alfa      n         Ks       l
 0.0449  0.3833  0.0385  3.2783     619.18     0.5 
0.04985 0.377475 0.03485  3.8696    1188.05     0.5 
*** BLOCK C: TIME INFORMATION ******************************************
        dt       dtMin       dtMax     DMul    DMul2  ItMin ItMax  MPL
          1      1e-005           1     1.3     0.7     3     7   250
      tInit        tMax
          0        1279
  lPrintD  nPrintSteps tPrintInterval lEnter
     f           1             7       t
TPrint(1),TPrint(2),...,TPrint(MPL)
       1.46        2.92        4.38        5.84         7.3        8.76 
      10.22       11.68       13.14        14.6       16.06       17.52 
      18.98       20.44        21.9       23.36       24.82       26.28 
      27.74        29.2       30.66       32.12       33.58       35.04 
       36.5       37.96       39.42       40.88       42.34        43.8 
      45.26       46.72       48.18       49.64        51.1       52.56 
      54.02       55.48       56.94        58.4       59.86       61.32 
      62.78       64.24        65.7       67.16       68.62       70.08 
      71.54          73       74.46       75.92       77.38       78.84 
       80.3       81.76       83.22       84.68       86.14        87.6 
      89.06       90.52       91.98       93.44        94.9       96.36 
      97.82       99.28      100.74       102.2      103.66      105.12 
     106.58      108.04       109.5      110.96      112.42      113.88 
     115.34       116.8      118.26      119.72      121.18      122.64 
      124.1      125.56      127.02      128.48      129.94       131.4 
     132.86      134.32      135.78      137.24       138.7      140.16 
     141.62      143.08      144.54         146      147.46      148.92 
     150.38      151.84       153.3      154.76      156.22      157.68 
     159.14       160.6      162.06      163.52      164.98      166.44 
      167.9      169.36      170.82      172.28      173.74       175.2 
     176.66      178.12      179.58      181.04       182.5      183.96 
     185.42      186.88      188.34       189.8      191.26      192.72 
     194.18      195.64       197.1      198.56      200.02      201.48 
     202.94       204.4      205.86      207.32      208.78      210.24 
      211.7      213.16      214.62      216.08      217.54         219 
     220.46      221.92      223.38      224.84       226.3      227.76 
     229.22      230.68      232.14       233.6      235.06      236.52 
     237.98      239.44       240.9      242.36      243.82      245.28 
     246.74       248.2      249.66      251.12      252.58      254.04 
      255.5      256.96      258.42      259.88      261.34       262.8 
     264.26      265.72      267.18      268.64       270.1      271.56 
     273.02      274.48      275.94       277.4      278.86      280.32 
     281.78      283.24       284.7      286.16      287.62      289.08 
     290.54         292      293.46      294.92      296.38      297.84 
      299.3      300.76      302.22      303.68      305.14       306.6 
     308.06      309.52      310.98      312.44       313.9      315.36 
     316.82      318.28      319.74       321.2      322.66      324.12 
     325.58      327.04       328.5      329.96      331.42      332.88 
     334.34       335.8      337.26      338.72      340.18      341.64 
      343.1      344.56      346.02      347.48      348.94       350.4 
     351.86      353.32      354.78      356.24       357.7      359.16 
     360.62      362.08      363.54         365 
*** BLOCK F: SOLUTE TRANSPORT INFORMATION *****************************************************
 Epsi  lUpW  lArtD lTDep    cTolA    cTolR   MaxItC    PeCr  No.Solutes  lTort   iBacter   lFiltr  nChPar
  0.5     f     f     f         0         0     1        2        1       t       0        f       16
iNonEqul lWatDep lDualNEq lInitM  lInitEq lTort lDummy  lDummy  lDummy  lDummy  lCFTr
   0       f       f       f       f       f       t       f       f       f       f
     Bulk.d.     DisperL.      Frac      Mobile WC (1..NMat)
        1.5          20           1           0 
        1.5          20           1           0 
         DifW       DifG                n-th solute
          0           0 
         Ks          Nu        Beta       Henry       SnkL1       SnkS1       SnkG1       SnkL1'      SnkS1'      SnkG1'      SnkL0       SnkS0       SnkG0        Alfa
          0           0           1           0           0           0           0           0           0           0           0           0           0           0 
          0           0           1           0           0           0           0           0           0           0           0           0           0           0 
      kTopSolute  SolTop    kBotSolute  SolBot
         -1           0           0           0 
      tPulse
        365
*** END OF INPUT FILE 'SELECTOR.IN' ************************************
